Version 4
SHEET 1 1776 876
WIRE 1040 -64 960 -64
WIRE 592 -48 432 -48
WIRE 736 -48 672 -48
WIRE 1040 -32 1040 -64
WIRE 960 0 960 -64
WIRE 592 64 560 64
WIRE 736 64 736 -48
WIRE 736 64 656 64
WIRE -32 80 -304 80
WIRE 1136 80 1136 64
WIRE 1232 80 1136 80
WIRE -304 112 -304 80
WIRE -160 112 -176 112
WIRE -32 112 -80 112
WIRE 1136 128 1136 80
WIRE -784 160 -912 160
WIRE -672 160 -784 160
WIRE -544 160 -672 160
WIRE 208 160 144 160
WIRE 336 160 272 160
WIRE 432 160 432 -48
WIRE 432 160 416 160
WIRE 448 160 432 160
WIRE 560 160 560 64
WIRE 560 160 528 160
WIRE 592 160 560 160
WIRE 1584 160 1584 144
WIRE 736 176 736 64
WIRE 736 176 656 176
WIRE 592 192 544 192
WIRE 960 192 960 80
WIRE 960 192 912 192
WIRE 1088 192 960 192
WIRE -176 208 -176 112
WIRE -160 208 -176 208
WIRE -32 208 -80 208
WIRE 432 224 432 160
WIRE -784 240 -784 160
WIRE -320 240 -320 224
WIRE -320 240 -704 240
WIRE -304 240 -304 192
WIRE -304 240 -320 240
WIRE -32 240 -304 240
WIRE 304 240 128 240
WIRE 544 256 544 192
WIRE 1232 272 1232 80
WIRE 1360 272 1232 272
WIRE 1520 272 1424 272
WIRE 1584 272 1584 160
WIRE 1584 272 1520 272
WIRE 0 304 0 256
WIRE -176 320 -176 208
WIRE -64 320 -176 320
WIRE 304 320 304 240
WIRE 304 320 240 320
WIRE 80 336 80 224
WIRE 80 336 48 336
WIRE 128 336 128 240
WIRE 128 336 80 336
WIRE 176 336 128 336
WIRE 736 336 736 176
WIRE 400 352 240 352
WIRE 912 352 912 336
WIRE -640 368 -816 368
WIRE -528 368 -576 368
WIRE -176 384 -336 384
WIRE 208 416 208 368
WIRE 400 416 400 352
WIRE 400 416 352 416
WIRE 496 416 400 416
WIRE 736 416 736 400
WIRE 1136 416 1136 224
WIRE 1136 416 736 416
WIRE -528 448 -528 368
WIRE -528 448 -576 448
WIRE -496 448 -528 448
WIRE -384 448 -416 448
WIRE -912 464 -912 160
WIRE -816 464 -816 368
WIRE -816 464 -912 464
WIRE -752 464 -816 464
WIRE -656 464 -688 464
WIRE -640 464 -656 464
WIRE -176 464 -176 384
WIRE -176 464 -224 464
WIRE -528 480 -576 480
WIRE -384 480 -384 448
WIRE -336 480 -336 384
WIRE -336 480 -384 480
WIRE -288 480 -336 480
WIRE -64 496 -64 320
WIRE -64 496 -224 496
WIRE -528 528 -528 480
WIRE -816 544 -816 464
WIRE -768 544 -816 544
WIRE -656 544 -656 464
WIRE -656 544 -688 544
WIRE -608 544 -608 496
WIRE 1136 544 1136 496
WIRE -256 560 -256 512
WIRE -384 816 -384 480
WIRE -384 816 -656 816
FLAG 0 304 0
FLAG 1392 16 0
FLAG 1392 -64 5V
FLAG 0 64 5V
FLAG 352 496 0
FLAG 496 496 5V
FLAG 1584 160 OP
FLAG 48 336 mid
FLAG 624 144 5V
FLAG 624 208 0
FLAG 544 256 mid
FLAG 1136 -16 5v
FLAG 912 352 0
FLAG 1136 544 0
FLAG 1040 -32 0
FLAG 1520 352 0
FLAG 208 304 5v
FLAG 208 416 0
FLAG -672 160 CommonLead
FLAG 432 288 0
FLAG -256 448 5V
FLAG -256 560 0
FLAG -608 432 5V
FLAG -608 544 0
FLAG -656 816 Shield
FLAG -528 528 mid
SYMBOL Opamps\\LT1789-1 0 160 R0
WINDOW 3 112 30 Left 2
SYMATTR InstName U1
SYMBOL res -64 96 R90
WINDOW 0 0 56 VBottom 2
WINDOW 3 32 56 VTop 2
SYMATTR InstName R1
SYMATTR Value 1.6K
SYMBOL voltage 1392 -80 R0
WINDOW 123 0 0 Left 2
WINDOW 39 0 0 Left 2
SYMATTR InstName V1
SYMATTR Value 5
SYMBOL voltage -304 96 R0
WINDOW 3 -7 -41 Left 2
WINDOW 123 24 44 Left 2
WINDOW 39 0 0 Left 2
SYMATTR Value SINE(0 30u 8 0 0 0 100)
SYMATTR Value2 AC AC 1
SYMATTR InstName V2
SYMBOL res 336 400 R0
SYMATTR InstName R2
SYMATTR Value 100K
SYMBOL res 480 400 R0
SYMATTR InstName R3
SYMATTR Value 100K
SYMBOL cap 272 144 R90
WINDOW 0 0 32 VBottom 2
WINDOW 3 32 32 VTop 2
SYMATTR InstName C2
SYMATTR Value 10µ
SYMBOL res 544 144 R90
WINDOW 0 0 56 VBottom 2
WINDOW 3 32 56 VTop 2
SYMATTR InstName R6
SYMATTR Value 15K
SYMBOL res 688 -64 R90
WINDOW 0 0 56 VBottom 2
WINDOW 3 32 56 VTop 2
SYMATTR InstName R7
SYMATTR Value 1MEG
SYMBOL Opamps\\LTC2054 624 176 R0
SYMATTR InstName U2
SYMBOL res 1120 -32 R0
SYMATTR InstName R9
SYMATTR Value 2K
SYMBOL voltage 912 240 R0
WINDOW 123 0 0 Left 2
WINDOW 39 0 0 Left 2
WINDOW 0 41 62 Left 2
SYMATTR InstName V3
SYMATTR Value SINE(0 200mV 1K)
SYMBOL cap 896 192 R0
SYMATTR InstName C3
SYMATTR Value 100n
SYMBOL res 976 96 R180
WINDOW 0 36 76 Left 2
WINDOW 3 36 40 Left 2
SYMATTR InstName R10
SYMATTR Value 10K
SYMBOL cap 720 336 R0
SYMATTR InstName C5
SYMATTR Value 100µ
SYMBOL res 1120 400 R0
SYMATTR InstName R11
SYMATTR Value 10K
SYMBOL njf 1088 128 R0
SYMATTR InstName J1
SYMATTR Value 2N4393
SYMBOL cap 1424 256 R90
WINDOW 0 0 32 VBottom 2
WINDOW 3 32 32 VTop 2
SYMATTR InstName C6
SYMATTR Value 100n
SYMBOL res 1504 256 R0
SYMATTR InstName R8
SYMATTR Value 2.2K
SYMBOL cap 448 288 R180
WINDOW 0 24 56 Left 2
WINDOW 3 24 8 Left 2
SYMATTR InstName C4
SYMATTR Value 470n
SYMBOL Opamps\\LTC2054 208 336 M0
SYMATTR InstName U3
SYMBOL res 432 144 R90
WINDOW 0 0 56 VBottom 2
WINDOW 3 32 56 VTop 2
SYMATTR InstName R5
SYMATTR Value 15K
SYMBOL cap 656 48 R90
WINDOW 0 0 32 VBottom 2
WINDOW 3 32 32 VTop 2
SYMATTR InstName C1
SYMATTR Value 4.7n
SYMBOL Opamps\\LTC2054 -256 480 M0
SYMATTR InstName U4
SYMBOL res -64 192 R90
WINDOW 0 0 56 VBottom 2
WINDOW 3 32 56 VTop 2
SYMATTR InstName R12
SYMATTR Value 1.6K
SYMBOL Opamps\\LTC2054 -608 464 M0
SYMATTR InstName U5
SYMBOL cap -576 352 R90
WINDOW 0 0 32 VBottom 2
WINDOW 3 32 32 VTop 2
SYMATTR InstName C7
SYMATTR Value 1n
SYMBOL cap -688 448 R90
WINDOW 0 0 32 VBottom 2
WINDOW 3 32 32 VTop 2
SYMATTR InstName C8
SYMATTR Value 1n
SYMBOL res -688 224 R90
WINDOW 0 0 56 VBottom 2
WINDOW 3 32 56 VTop 2
SYMATTR InstName R4
SYMATTR Value 100K
SYMBOL res -672 528 R90
WINDOW 0 0 56 VBottom 2
WINDOW 3 32 56 VTop 2
SYMATTR InstName R13
SYMATTR Value 200K
SYMBOL res -400 432 R90
WINDOW 0 0 56 VBottom 2
WINDOW 3 45 52 VTop 2
SYMATTR InstName R14
SYMATTR Value 10K
TEXT -312 8 Left 2 !.tran 0 500m 50m 1m
TEXT -144 712 Left 4 ;DANGER THIS CIRCUIT DOES NOT COMPLY WITH ANY SAFETY REQUIREMENTS
TEXT 152 -216 Left 4 ;EXPERIMENTAL CIRCUIT ONLY
TEXT -176 624 Left 2 ;EXAMPLE WITHOUT ISOLATION YOU WILL BE RISKING SHOCK IF YOU USE A MAINS POWERED CHARGER TO THIS DEVICE OR YOUR PHONE
TEXT -344 -136 Left 2 ;NOTE V2 Represents EEG input
TEXT 880 -128 Left 2 ;NOTE V3 Represents 400mv p-p 1KHz Tone from your phone
TEXT -416 -168 Left 2 ;R4 IS NOT FITTED, IT REPRESENTS THE VICTIM!
TEXT 1456 -40 Left 2 ;3 to 5V
